21
Coordinates from ORCA-job /home/jang/cal_tmp/10_orca/Gen_chromophore/Gen_molecular_pairs_cal/mol_2_5.xyz/input
  N   -0.37446334790258     -4.79325212425523      0.41954921402383
  C   -0.34076361466656     -3.65127528069044      0.52224694056826
  C   -0.27591274722479     -2.24990725968695      0.62436981136207
  C   0.36642766541424     -1.49552819673006     -0.32156629424833
  C   0.44627236561874     -0.10024734570185     -0.17294302165667
  C   1.11704636261193      0.73906939192063     -1.10181016468534
  C   1.17928857154386      2.07711190951124     -0.91942667675603
  C   0.56079937206076      2.72531840792056      0.23819464970453
  O   0.61534531323466      3.93984958143060      0.40798540119711
  C   -0.11917841632629      1.84322956488701      1.17157161802547
  C   -0.16857615606866      0.49260108642839      0.96834902990770
  O   -0.82235215373137     -0.26708135640209      1.87932328584713
  C   -0.89179253737767     -1.62476775827447      1.81062961009071
  O   -1.45496871181470     -2.21959893237400      2.68817219770173
  H   0.82533856151492     -1.97087561498835     -1.17774480613747
  H   1.57900013515666      0.27174157992620     -1.95979598469222
  H   1.68844989207140      2.72236465570287     -1.61893573338689
  H   -0.58764026958193      2.28280223583332      2.03825301003433
  O   1.58646630845576     -1.73144849997466      2.74730419570573
  H   1.84972963434160     -2.63306133246721      2.94926039150432
  H   1.35471073364410     -1.32262320731849      3.58571033255295
