44
Minimum distance between molecules: 6.238567690449186
O 0.7286696346380501 0.8589548948873879 -2.365734635113519
C 0.15751472165602098 0.470896209774597 -1.2821836593953362
C 0.885927646544416 -0.004225685684090938 -0.13144897378003892
C 2.4037732825472733 -0.08962359161720986 -0.0958934009805323
N 3.249834470310596 0.2378493063813563 -1.0574571201329523
C 4.563620147174849 0.04019008903315318 -0.702720290993534
C 5.686955751099032 0.2974517041205887 -1.5144173733076556
C 6.973150331308999 0.04939298900636329 -1.0245872312744326
C 7.149483162842251 -0.45084466477042606 0.2617953058917428
C 6.048901407433508 -0.7135032522304624 1.0849166913275063
C 4.762499390158194 -0.45878058420498413 0.5779103072602317
S 3.2366264285261708 -0.672717646432999 1.3265449358105887
C 0.15837337159803772 -0.4101087988864777 1.0183535172625295
C -1.236797282953361 -0.37560089080952563 1.1006466329647924
C -1.901339668765537 -0.7904850475039363 2.2663152138298734
C -3.2928024323801557 -0.7571254373142673 2.3510132436170097
C -4.054916211837059 -0.3069713770402549 1.269508487582896
C -5.456380016573487 -0.2668993869995441 1.3380036731050649
C -6.207432398048669 0.18345009152551559 0.25431742591164075
C -5.565123977557113 0.5988312670296724 -0.9099770232217298
C -4.164980277867464 0.5686245726154743 -1.0039340867999271
C -3.5097500819780074 0.9811215110905925 -2.162228665607123
C -2.113941028354735 0.9428139205556345 -2.2344143108172863
C -1.2918473432242534 0.49721505072151945 -1.1721119820150314
C -1.9728523070350052 0.08039195507728986 0.0005660835502361823
C -3.3960472974881184 0.1139561311890042 0.08867147134366692
H 5.527695597768129 0.6875247755819995 -2.5148921250122713
H 7.833068104699457 0.25068700918840914 -1.6573504879402625
H 8.153395399381228 -0.640335594898162 0.6332192854074603
H 6.182720390196627 -1.1034633731834833 2.088273650860915
H 0.685533707605805 -0.7708141217101236 1.8949174129001112
H -1.331790209480539 -1.144954530951053 3.121842324195901
H -3.7720547059021556 -1.0858150838256022 3.268801646316683
H -5.971488067414779 -0.587788265814665 2.2396666508732883
H -7.291175028847156 0.2111814396461657 0.3158253368374392
H -6.160694308386851 0.9484381963127053 -1.749556818461708
H -4.061650038288989 1.337997220171961 -3.0262866718251242
H -1.6346802631049617 1.2730889999681327 -3.1562726017064535
C -11.362863138326896 6.504607159858304 -4.600140261331151
C -9.948510171556697 6.135663265703662 -4.573982222550354
N -8.826010880033941 5.842850995052791 -4.55322187633669
H -11.895791318281546 6.061918822084478 -3.7534186216224943
H -11.482307003587225 7.590785976467936 -4.546551863264291
H -11.838704413755675 6.15541870377925 -5.52131646756934
