22
Minimum distance between molecules: 4.506517387692481
N 4.575418472766425 -0.1834614669297169 2.047817001357942
C 3.49620673961694 0.02281365448733078 1.6737965155864938
C 2.179738910030184 0.20699646879692554 1.1724500313913273
C 1.6472864338934432 -0.6852733033388074 0.3231411367261586
C 0.30069967230257705 -0.4983873118903432 -0.19067119467656324
C -0.290349748461545 -1.4021761758588012 -1.0754671138539857
C -1.5896488830572253 -1.1732989627696815 -1.5387509803706392
C -2.291838896737625 -0.04607066167200304 -1.1180035447273724
O -3.554410516987017 0.12794879976311255 -1.6005455286938777
C -1.7191903187678268 0.8636326704624127 -0.23798571657259865
C -0.42393652894584266 0.6200438725066257 0.21354231180804947
O 0.1377000726942165 1.5537566664594846 1.104393924910267
C 1.4254285973796064 1.4006225736260043 1.612866688485235
O 1.8973684109737798 2.224699096904392 2.3878617158467534
H 2.201474877231543 -1.5624114830213232 -0.0005541071793125351
H 0.24267024477541813 -2.2872586707675673 -1.4145258265512783
H -2.0552613319247928 -1.8736446619197733 -2.2279819082523433
H -3.9263473460694387 0.945853027846695 -1.2300059510653414
H -2.253008860520224 1.745615867508611 0.09862254625115997
O 4.182627340250931 -2.279129714967187 -4.569452563030862
H 3.40880284471983 -2.862359194667682 -4.569452563030862
H 4.935503267945737 -2.889161541834371 -4.569452563030862
