22
Coordinates from ORCA-job /home/jang/cal_tmp/10_orca/Gen_chromophore/Gen_molecular_pairs_cal/mol_1_3.xyz/input
  N   4.30716660076965     -1.61622876959497      1.41365453728967
  C   3.28417931070444     -1.17851897440630      1.13495313001569
  C   2.01259114915139     -0.70957008384732      0.74826536775710
  C   1.23890041792868     -1.44830514533223     -0.09561580042826
  C   -0.04212325979968     -0.96993584307601     -0.48119322064693
  C   -0.90324886031698     -1.66449543835924     -1.34525082299227
  C   -2.12651736463350     -1.14829941195141     -1.67910988983474
  C   -2.53617332054896      0.08991095598569     -1.15745012885400
  O   -3.74780655759594      0.55059477898927     -1.51832522463182
  C   -1.70254029693079      0.79454910237978     -0.30165758484660
  C   -0.46107338733326      0.26986734400764      0.03667844164904
  O   0.31532049781123      0.99064493498316      0.87232383953939
  C   1.55964099178900      0.58017969229289      1.27903139594618
  O   2.17585304745274      1.29174262075387      2.02521346739165
  H   1.59373199856848     -2.39745975573929     -0.47409849496218
  H   -0.58000538968874     -2.61481002425833     -1.74074087580671
  H   -2.79842231596451     -1.66941151603606     -2.34110425762127
  H   -3.92757264032472      1.40477280150959     -1.10438988157825
  H   -1.99641944694446      1.74811063988977      0.11155995212203
  O   3.23230160624553     -3.94629983878836     -0.50607843914728
  H   3.83561546008355     -3.47830204984061      0.08063817703567
  H   3.66784151232695     -4.76470368403592     -0.75306219610422
