22
Coordinates from ORCA-job /home/jang/cal_tmp/10_orca/Gen_chromophore/Gen_molecular_pairs_cal/mol_1_7.xyz/input
  N   4.52450435577305     -0.43636627564775      2.38767317138752
  C   3.49964187099517     -0.21790616306361      1.92110155525932
  C   2.23508831498823     -0.03028471380844      1.32768737761679
  C   1.59667983384837     -1.07677762692056      0.73269935227975
  C   0.32150565992628     -0.88092200229657      0.13790136875230
  C   -0.40541023623511     -1.90140303053851     -0.49518355586275
  C   -1.63086653506646     -1.64753920518442     -1.05028008764060
  C   -2.17806263730290     -0.35516460752197     -0.99193066905841
  O   -3.38560524069197     -0.16128962854122     -1.55293832329045
  C   -1.47839714589638      0.66929191193628     -0.37161321589822
  C   -0.23444729691680      0.41096231300174      0.19133330504003
  O   0.40905194004956      1.43825484794697      0.78373939081021
  C   1.64056111917702      1.30922681835134      1.37453464295226
  O   2.13315130160347      2.28257001332124      1.87748147031169
  H   2.05568010729905     -2.05601505875008      0.71085293149379
  H   0.02264759158182     -2.89092947241858     -0.53477101752760
  H   -2.20083618135772     -2.42008865710678     -1.53970395561266
  H   -3.66515414846647      0.75844003992739     -1.45691917777944
  H   -1.87934051489441      1.67047064856187     -0.31470060985971
  O   3.79692996293490     -3.35958375626143      1.28653021121500
  H   4.31001168194093     -2.67342323390114      1.72596183602698
  H   4.31145345125952     -4.16733786902125      1.34271666974953
