22
Coordinates from ORCA-job /home/jang/cal_tmp/10_orca/Gen_chromophore/Gen_molecular_pairs_cal/mol_1_8.xyz/input
  N   4.56312717756415     -0.07212879090504      0.58759171583401
  C   3.45986000310655      0.02007842146239      0.29201073381549
  C   2.09419135183233      0.11536009003197     -0.05247042485496
  C   1.30922081369331     -0.99034724057436     -0.16823155413094
  C   -0.06462389229734     -0.85593034196017     -0.50351946115666
  C   -0.94413663820407     -1.94130758171676     -0.64478085371361
  C   -2.25939528318820     -1.73996515939651     -0.96600770772399
  C   -2.74868291226671     -0.43713016201117     -1.15961175347679
  O   -4.04778439376704     -0.29873468350823     -1.47438383821216
  C   -1.89899866418143      0.65104736545075     -1.02402998702386
  C   -0.56410195062177      0.44547830705427     -0.69897548872797
  O   0.22480396423135      1.53396074337402     -0.58019953562449
  C   1.55232555124568      1.45812435548563     -0.28096959919136
  O   2.18424703163956      2.48329135673889     -0.22493426005519
  H   1.72171886252175     -1.97627250138655     -0.00528790022228
  H   -0.56426222070178     -2.94022474291291     -0.49599758996254
  H   -2.94535535083283     -2.56336868065903     -1.07859369219688
  H   -4.27831123302648      0.63239352767321     -1.58997288448885
  H   -2.25077457805661      1.66169077675159     -1.16871566043687
  O   4.24123571112125      1.78861572851145     -2.14429225749524
  H   5.04744370654888      1.57675575165519     -1.66831118370520
  H   3.72058095519847      2.34558385934836     -1.55397510034840
