21
Coordinates from ORCA-job /home/jang/cal_tmp/10_orca/Gen_chromophore/Gen_molecular_pairs_cal/mol_2_1.xyz/input
  N   -1.87499691161961     -3.92749920464424     -1.39111893585290
  C   -1.41695453648527     -3.04621052307577     -0.81832655170813
  C   -0.84359440101293     -1.94731571423441     -0.15004248094302
  C   -0.29135517134221     -0.90216866341508     -0.84385162664840
  C   0.27533853203637      0.18435958816131     -0.15266751660555
  C   0.86343890173131      1.29750010898091     -0.80929442210000
  C   1.39847675224795      2.32413187185553     -0.10900060698708
  C   1.39248481333592      2.33111734211527      1.35347628480790
  O   1.87584924652253      3.26173632075894      2.00055781931495
  C   0.78773593523251      1.18409073545402      2.00324893869611
  C   0.25402720706800      0.15874948133015      1.27365839131789
  O   -0.29634643258637     -0.88381902429919      1.94186281876881
  C   -0.85933964773100     -1.96274502057001      1.32595077730750
  O   -1.32249800050718     -2.83857352048431      2.00052706113837
  H   -0.28860447328651     -0.90777977552126     -1.92544849917073
  H   0.87107489325217      1.29942384222542     -1.88960625087278
  H   1.84919538787952      3.17538070490992     -0.59835724540680
  H   0.76676723334989      1.15611630908336      3.08144940955941
  O   2.88821004718653      5.12241039415681      0.09602300533694
  H   3.34892706500520      5.91157138476052      0.38421006338691
  H   2.61795095457115      4.65182167449756      0.89963263727123
