21
Coordinates from ORCA-job /home/jang/cal_tmp/10_orca/Gen_chromophore/Gen_molecular_pairs_cal/mol_2_9.xyz/input
  N   0.03399072693394     -4.58442308141441      0.95692400405358
  C   -0.03773988962758     -3.44035688471955      0.92145610915376
  C   -0.10161596133469     -2.03632317902827      0.85716086994236
  C   0.54058660429919     -1.33788310086802     -0.13137539327161
  C   0.48096824293363      0.06620474273943     -0.15262359086572
  C   1.13227487597863      0.85334881870021     -1.13960715470624
  C   1.05409457348435      2.20277770146722     -1.12287692459292
  C   0.29815031771774      2.91766216339786     -0.09309936159464
  O   0.22367379100329      4.14263865831608     -0.07603573512000
  C   -0.35711648534751      2.08813620132101      0.90447560095516
  C   -0.26409119625482      0.72498209245221      0.86862561806996
  O   -0.90333688055564      0.01497626950064      1.82980592918680
  C   -0.85812438830046     -1.33984210713616      1.91380462937777
  O   -1.42350852346214     -1.88278599944132      2.82442933908268
  H   1.10362963482851     -1.86226152423467     -0.89127145048380
  H   1.69419323672395      0.33722292411495     -1.90493023186097
  H   1.54597292369599      2.80898696533542     -1.86818735622112
  H   -0.92238766640038      2.57672160086370      1.68256712999709
  O   1.63836905947267     -1.85088168440107      3.05451319708253
  H   2.37785888927132     -2.43782448336410      3.23021053653066
  H   0.99295066670635     -2.00890711761862      3.74976581421537
