44
Coordinates from ORCA-job /home/jang/cal_tmp/10_orca/Gen_chromophore/Gen_molecular_pairs_cal/mol_4_7.xyz/input
  O   0.58383384330588      1.67697951790412     -2.02752652057946
  C   -0.03897459377587      1.12184706969220     -1.13465820992447
  C   0.58301849211574      0.22011849611895     -0.14272150661629
  C   1.99578253930168      0.00031520996567     -0.21179630725976
  N   2.81585962250456      0.57340257718027     -1.00735539100006
  C   4.09576572934427      0.16918954919680     -0.85320791782333
  C   5.19102638062212      0.62652448632139     -1.58496463886735
  C   6.43800443281317      0.11346402492029     -1.30613758737475
  C   6.61632719983400     -0.84800873933916     -0.31066967619753
  C   5.54849509394747     -1.31781382253667      0.42842631902987
  C   4.29025489966720     -0.80857410098049      0.15606145530899
  S   2.77741946511263     -1.19166381683443      0.90169287847713
  C   -0.17534900534613     -0.39508770347291      0.82113470987707
  C   -1.56513268655051     -0.20795423012989      0.93991015072453
  C   -2.32632265479839     -0.84803960839269      1.94120506687931
  C   -3.67208007388026     -0.64821998049226      2.04201556401905
  C   -4.35771302787833      0.21218014463453      1.14341525171887
  C   -5.73679975020839      0.43596510389591      1.22515724409123
  C   -6.37252326043351      1.28310128617928      0.33067800283240
  C   -5.66023340390771      1.92471525712156     -0.66213515743780
  C   -4.27273677211193      1.72957107235541     -0.78349654676059
  C   -3.51155950201851      2.36825583347289     -1.78913900765441
  C   -2.16075011825647      2.15947631027690     -1.88179632041221
  C   -1.49244748204342      1.31048808853072     -0.98662638248924
  C   -2.22015854040786      0.65899605183433      0.02284137789415
  C   -3.61557302045666      0.86664405471981      0.12783217223782
  H   5.03405762770724      1.36892896493699     -2.35052115053270
  H   7.29536899462339      0.45795819445187     -1.86495479705795
  H   7.60607674041332     -1.23212103208751     -0.11385426834988
  H   5.68471905201010     -2.06157168227498      1.19831666678294
  H   0.31024319904356     -1.05267552223299      1.53149185353295
  H   -1.81792892570119     -1.50526239654522      2.63235294021566
  H   -4.24277944749132     -1.14509096651696      2.81357583182318
  H   -6.30465919596574     -0.06162083610707      1.99834261569895
  H   -7.43803526728939      1.44071881888335      0.41385849327133
  H   -6.15205805016906      2.58506176983357     -1.35952690274988
  H   -4.02371372069346      3.02193346786108     -2.47956014644692
  H   -1.56901063636686      2.64138417674472     -2.64641200354643
  C   -5.93341051691261      6.02063226662915     -5.01947618145458
  C   -5.97537362056648      4.96637677371278     -4.04862723245399
  N   -6.00583389772050      4.12447851395673     -3.27594220364727
  H   -6.41027036654495      5.68685058670869     -5.94034606641035
  H   -6.46043723283442      6.89257464570134     -4.63369194823855
  H   -4.89653443337495      6.28522259486201     -5.22371075546305
