44
Coordinates from ORCA-job /home/jang/cal_tmp/10_orca/Gen_chromophore/Gen_molecular_pairs_cal/mol_4_8.xyz/input
  O   0.90167557574992      1.75766507837701     -1.90097826453151
  C   0.18822763514497      1.19437678596319     -1.08428321490263
  C   0.68508822766129      0.19585072848124     -0.11479293006099
  C   2.07672451313939     -0.13859674931041     -0.13169954235682
  N   2.96166568381108      0.33222888891940     -0.92495168172603
  C   4.20103653085877     -0.16127283748769     -0.71235027961673
  C   5.34914061171210      0.17691171809090     -1.42779313482731
  C   6.54397107897712     -0.41637904523534     -1.08660076234029
  C   6.61817004032041     -1.34197365014395     -0.04496265766723
  C   5.49612776612482     -1.69471607686134      0.67878215686941
  C   4.28964116037834     -1.10401832625568      0.34412486311085
  S   2.73046474375588     -1.33703643259334      1.05549373695293
  C   -0.16693161409987     -0.39683462584283      0.78285105054769
  C   -1.54239059173914     -0.10580187008651      0.84361690756773
  C   -2.40112822573553     -0.72632154951072      1.77608003368597
  C   -3.73207174448485     -0.42986678475860      1.81723596599125
  C   -4.30397128049091      0.51387472960267      0.92262857147074
  C   -5.66575164202376      0.83610336309363      0.94297421085253
  C   -6.18934237104093      1.76177625873495      0.05353253589734
  C   -5.37965106181043      2.38770245809438     -0.87233899796148
  C   -4.00497019892711      2.09639698170477     -0.92909345445321
  C   -3.14496989906477      2.71905591629664     -1.86241695490458
  C   -1.80947872876937      2.41545699753501     -1.89348599157024
  C   -1.25466379679315      1.48112309405534     -1.00586595601397
  C   -2.08195941404334      0.84445933090509     -0.06612506824462
  C   -3.46238017480707      1.15103745013686     -0.02410126309008
  H   5.27263857022404      0.89368079151160     -2.22905668748155
  H   7.44135186466591     -0.16401874626571     -1.63161120885471
  H   7.56903977395352     -1.79084703640254      0.20036362401607
  H   5.55177145401800     -2.41061505519561      1.48421937960891
  H   0.22836285633992     -1.12449845751744      1.48075675360207
  H   -1.98002835796935     -1.44690913877409      2.46268383591938
  H   -4.37812306201459     -0.91231477929794      2.53679163371320
  H   -6.30909707411493      0.35229512506333      1.66397959849880
  H   -7.24374571638017      1.99423450312911      0.08784653074118
  H   -5.78453417065300      3.10858643626027     -1.56567311187081
  H   -3.57001281159235      3.43810707918308     -2.54702858561664
  H   -1.14266350696771      2.88517952027507     -2.60178313891949
  C   -4.91922339821495      6.32502480346526     -5.35039621920369
  C   -5.21202386278194      5.41657311533125     -4.28039190867301
  N   -5.44180574848762      4.69203670711986     -3.42645459952100
  H   -4.16439934609974      5.88706002244234     -6.00264071939196
  H   -5.82524553544632      6.51832300607200     -5.92348031692562
  H   -4.54342959714907      7.26128953193904     -4.93918807319871
