21
Coordinates from ORCA-job /home/jang/cal_tmp/10_orca/Gen_chromophore/Gen_molecular_pairs_cal/mol_2_10.xyz/input
  N   -0.11905796082325     -4.56448456393307      0.97987726863060
  C   -0.13855172866231     -3.41771148638989      0.96230206892570
  C   -0.13410177055782     -2.01180342883652      0.91804300505412
  C   0.37036117653990     -1.33415812203617     -0.16031019882117
  C   0.39638499674493      0.07104053049901     -0.15821939148654
  C   0.92614988807332      0.83580900236476     -1.23144285517525
  C   0.94196357803351      2.18683770618112     -1.18835396841994
  C   0.41527361434661      2.92603977178749     -0.03984106970337
  O   0.42758703035184      4.15282635230839      0.00316096203486
  C   -0.12085543540076      2.11890625315693      1.04293395995780
  C   -0.12541113849313      0.75362729985820      0.97918945240122
  O   -0.64366949610415      0.06681834496150      2.02506544814317
  C   -0.65664110445315     -1.29233638403091      2.09538381423601
  O   -1.09950547891214     -1.81549963263598      3.08096444915676
  H   0.76227254354629     -1.87663389943479     -1.00988019751554
  H   1.31909735287280      0.30098329864530     -2.08439278609487
  H   1.34428403543240      2.77630880906048     -1.99802979119581
  H   -0.51819248258910      2.62649666489973      1.90795666554785
  O   1.92361465540057     -1.16651528125579      2.74186990129406
  H   2.36927198305793     -1.99052257667592      2.95445695354811
  H   1.72970853060255     -0.73914416626853      3.58078226449834
