22
Coordinates from ORCA-job /home/jang/cal_tmp/10_orca/Gen_chromophore/Gen_molecular_pairs_cal/mol_1_10.xyz/input
  N   4.57317551175104     -0.10718027093815      2.27290526777636
  C   3.51447321471922      0.05241322819925      1.86421299862386
  C   2.20994833155787      0.20678611418092      1.34741218953826
  C   1.60492659528723     -0.79505094574575      0.65280752701269
  C   0.28781184294946     -0.62175108306910      0.15140739909338
  C   -0.41153423432026     -1.60746232091639     -0.56102534031014
  C   -1.68478948370512     -1.37820377915988     -1.00862059121597
  C   -2.30905761914560     -0.14581012273961     -0.75790379506582
  O   -3.56214383324981      0.02699627339040     -1.21954489211064
  C   -1.63739827517621      0.84421303683879     -0.05702224833582
  C   -0.34612099834508      0.60955110160069      0.39892589427452
  O   0.26600776627438      1.60048379001484      1.07826607979195
  C   1.52998273299098      1.48348742289220      1.59433624207214
  O   1.98460864166637      2.41714387987809      2.19900432554209
  H   2.11856032436945     -1.73064111998636      0.48108087942966
  H   0.07134842566764     -2.55425818458035     -0.74649544319439
  H   -2.23549739911523     -2.12672014664762     -1.55438113945501
  H   -3.89364301035837      0.90397919691301     -0.98688460721017
  H   -2.09892686331475      1.79848851461422      0.14983394528211
  O   -0.53853766807965     -1.98106791308915      3.32108513112614
  H   -1.09077118510357     -2.71908273220637      3.58885069033056
  H   -0.11038806547331     -1.65256274205457      4.11523461955726
