6
CC#N
C -0.47049865073665664 0.12273300603394593 -0.008701709218467076
C 0.9438543160335419 -0.24621088812069625 0.017456329562329245
N 2.066353607556299 -0.5390231587715674 0.038216675775994004
H -1.003426830691308 -0.3199553317398799 0.8380199304901894
H -0.589942515996987 1.2089118226435778 0.044886688848392954
H -0.9463399261654353 -0.2264554500451085 -0.9298779154566564
